Circuit: *Filename Lab5_Top.cir

Direct Newton iteration for .op point succeeded.

Date: Thu Oct 14 09:37:57 2021
Total elapsed time: 0.031 seconds.

tnom = 27
temp = 27
method = modified trap
totiter = 3050
traniter = 3021
tranpoints = 1289
accept = 1194
rejected = 95
matrix size = 38
fillins = 50
solver = Normal
Matrix Compiler1:     236 opcodes  0.6/[0.3]/0.6
Matrix Compiler2: off  [0.2]/0.4/0.3

